<routes>
   <vType id="car"
   			vClass="passenger" length="5" accel="2.5" decel="2.2"
   			sigma="0.8" maxSpeed= "10"/>

   <vType id="ev"
      		vClass="emergency" length="7" accel="4.5" decel="2.2" sigma="1.0"
      		maxSpeed="20" guiShape="emergency" speedFactor="2.0"
      		minGapLat="0.5"/>

    <route id="route_0" edges="E1" />
    <!--<flow id="carflow" type="car" beg="0" end="0" number="5" from="e1" to="e8"/>-->
    <!--<flow id="evflow" type="ev" beg="0" end="0" number="1" from="e1" to="e8"/>-->

    <vehicle id="0" type="car" carFollowModel='IDM' route="route_0" depart="0" />
    <vehicle id="1" type="car" carFollowModel='IDM' route="route_0" depart="3"/>
    <vehicle id="2" type="car" carFollowModel='IDM' route="route_0" depart="6"/>
    <vehicle id="ev_0" type="ev" carFollowModel='IDM' route="route_0" depart="9"/>
    <vehicle id="3" type="car" carFollowModel='IDM' route="route_0" depart="2"/>
    <vehicle id="4" type="car" carFollowModel='IDM' route="route_0" depart="4"/>


    <flow id ='carflow' type='car' beg="0" end="0" number="5" from="E1" to="E1"/>


    <vehicle id="5" type="car" carFollowModel='IDM' route="route_0" depart="12"/>
    <vehicle id="6" type="car" carFollowModel='IDM' route="route_0" depart="13"/>
    <vehicle id="7" type="car" carFollowModel='IDM' route="route_0" depart="15"/>
    <vehicle id="8" type="car" carFollowModel='IDM' route="route_0" depart="5"/>
    <vehicle id="9" type="car" carFollowModel='IDM' route="route_0" depart="8"/>
    <vehicle id="10" type="car" carFollowModel='IDM' route="route_0" depart="13"/>
    <vehicle id="11" type="car" carFollowModel='IDM' route="route_0" depart="15"/>
    <vehicle id="12" type="car" carFollowModel='IDM' route="route_0" depart="5"/>
    <vehicle id="13" type="car" carFollowModel='IDM' route="route_0" depart="8"/>


</routes>